IEEE/34Bus/ieee34-1_VLN_elem.Txt

NODE-GROUND VOLTAGES BY CIRCUIT ELEMENT

Power Delivery Elements

Bus       (node ref)  Phase    Magnitude, kV (pu)    Angle

ELEMENT = "Vsource.SOURCE"
SOURCEBUS  (  1)    1           41.829 (    1.05) /_   30.0
SOURCEBUS  (  2)    2           41.829 (    1.05) /_  -90.0
SOURCEBUS  (  3)    3           41.829 (    1.05) /_  150.0
------------
SOURCEBUS  (  0)    0                0 (       0) /_    0.0
SOURCEBUS  (  0)    0                0 (       0) /_    0.0
SOURCEBUS  (  0)    0                0 (       0) /_    0.0

ELEMENT = "Transformer.SUBXF"
SOURCEBUS  (  1)    1           41.829 (    1.05) /_   30.0
SOURCEBUS  (  2)    2           41.829 (    1.05) /_  -90.0
SOURCEBUS  (  3)    3           41.829 (    1.05) /_  150.0
SOURCEBUS  (  0)    0                0 (       0) /_    0.0
------------
800        (  4)    1           15.095 (    1.05) /_    0.0
800        (  5)    2           15.095 (    1.05) /_ -120.0
800        (  6)    3           15.095 (    1.05) /_  120.0
800        (  0)    0                0 (       0) /_    0.0

ELEMENT = "Line.L1"
800        (  4)    1           15.095 (    1.05) /_    0.0
800        (  5)    2           15.095 (    1.05) /_ -120.0
800        (  6)    3           15.095 (    1.05) /_  120.0
------------
802        (  7)    1           15.059 (   1.048) /_    0.0
802        (  8)    2           15.072 (   1.048) /_ -120.1
802        (  9)    3           15.073 (   1.048) /_  120.0

ELEMENT = "Line.L2"
802        (  7)    1           15.059 (   1.048) /_    0.0
802        (  8)    2           15.072 (   1.048) /_ -120.1
802        (  9)    3           15.073 (   1.048) /_  120.0
------------
806        ( 10)    1           15.036 (   1.046) /_   -0.1
806        ( 11)    2           15.057 (   1.047) /_ -120.1
806        ( 12)    3           15.058 (   1.047) /_  119.9

ELEMENT = "Line.L3"
806        ( 10)    1           15.036 (   1.046) /_   -0.1
806        ( 11)    2           15.057 (   1.047) /_ -120.1
806        ( 12)    3           15.058 (   1.047) /_  119.9
------------
808        ( 13)    1           14.591 (   1.015) /_   -0.6
808        ( 14)    2           14.796 (   1.029) /_ -120.8
808        ( 15)    3           14.796 (   1.029) /_  119.4

ELEMENT = "Line.L4"
808        ( 14)    2           14.796 (   1.029) /_ -120.8
------------
810        ( 16)    2           14.794 (   1.029) /_ -120.8

ELEMENT = "Line.L5"
808        ( 13)    1           14.591 (   1.015) /_   -0.6
808        ( 14)    2           14.796 (   1.029) /_ -120.8
808        ( 15)    3           14.796 (   1.029) /_  119.4
------------
812        ( 17)    1           14.073 (  0.9789) /_   -1.2
812        ( 18)    2           14.508 (   1.009) /_ -121.6
812        ( 19)    3           14.486 (   1.008) /_  118.8

ELEMENT = "Line.L6"
812        ( 17)    1           14.073 (  0.9789) /_   -1.2
812        ( 18)    2           14.508 (   1.009) /_ -121.6
812        ( 19)    3           14.486 (   1.008) /_  118.8
------------
814        ( 20)    1           13.662 (  0.9503) /_   -1.7
814        ( 21)    2            14.28 (  0.9933) /_ -122.2
814        ( 22)    3           14.239 (  0.9905) /_  118.4

ELEMENT = "Line.L7"
814R       ( 23)    1           14.768 (   1.027) /_   -1.8
814R       ( 24)    2           14.724 (   1.024) /_ -122.3
814R       ( 25)    3           14.682 (   1.021) /_  118.3
------------
850        ( 26)    1           14.768 (   1.027) /_   -1.8
850        ( 27)    2           14.724 (   1.024) /_ -122.3
850        ( 28)    3           14.682 (   1.021) /_  118.3

ELEMENT = "Line.L8"
816        ( 29)    1           14.763 (   1.027) /_   -1.8
------------
818        ( 30)    1            14.75 (   1.026) /_   -1.8

ELEMENT = "Line.L9"
816        ( 29)    1           14.763 (   1.027) /_   -1.8
816        ( 31)    2            14.72 (   1.024) /_ -122.3
816        ( 32)    3           14.679 (   1.021) /_  118.3
------------
824        ( 33)    1           14.635 (   1.018) /_   -1.8
824        ( 34)    2           14.585 (   1.015) /_ -122.4
824        ( 35)    3           14.558 (   1.013) /_  118.1

ELEMENT = "Line.L10"
818        ( 30)    1            14.75 (   1.026) /_   -1.8
------------
820        ( 36)    1           14.424 (   1.003) /_   -1.7

ELEMENT = "Line.L11"
820        ( 36)    1           14.424 (   1.003) /_   -1.7
------------
822        ( 37)    1           14.382 (       1) /_   -1.7

ELEMENT = "Line.L12"
824        ( 34)    2           14.585 (   1.015) /_ -122.4
------------
826        ( 38)    2           14.582 (   1.014) /_ -122.4

ELEMENT = "Line.L13"
824        ( 33)    1           14.635 (   1.018) /_   -1.8
824        ( 34)    2           14.585 (   1.015) /_ -122.4
824        ( 35)    3           14.558 (   1.013) /_  118.1
------------
828        ( 39)    1           14.625 (   1.017) /_   -1.8
828        ( 40)    2           14.575 (   1.014) /_ -122.5
828        ( 41)    3           14.548 (   1.012) /_  118.1

ELEMENT = "Line.L14"
828        ( 39)    1           14.625 (   1.017) /_   -1.8
828        ( 40)    2           14.575 (   1.014) /_ -122.5
828        ( 41)    3           14.548 (   1.012) /_  118.1
------------
830        ( 42)    1           14.372 (  0.9997) /_   -2.0
830        ( 43)    2           14.331 (  0.9969) /_ -122.8
830        ( 44)    3           14.304 (   0.995) /_  117.7

ELEMENT = "Line.L15"
830        ( 42)    1           14.372 (  0.9997) /_   -2.0
830        ( 43)    2           14.331 (  0.9969) /_ -122.8
830        ( 44)    3           14.304 (   0.995) /_  117.7
------------
854        ( 45)    1           14.366 (  0.9993) /_   -2.0
854        ( 46)    2           14.325 (  0.9965) /_ -122.8
854        ( 47)    3           14.298 (  0.9946) /_  117.7

ELEMENT = "Line.L16"
832        ( 48)    1           15.061 (   1.048) /_   -2.4
832        ( 49)    2           15.024 (   1.045) /_ -123.5
832        ( 50)    3           14.913 (   1.037) /_  116.9
------------
858        ( 51)    1           15.028 (   1.045) /_   -2.5
858        ( 52)    2            14.99 (   1.043) /_ -123.6
858        ( 53)    3            14.88 (   1.035) /_  116.8

ELEMENT = "Line.L17"
834        ( 54)    1            14.99 (   1.043) /_   -2.5
834        ( 55)    2           14.951 (    1.04) /_ -123.7
834        ( 56)    3           14.843 (   1.032) /_  116.7
------------
860        ( 57)    1           14.984 (   1.042) /_   -2.5
860        ( 58)    2           14.945 (    1.04) /_ -123.7
860        ( 59)    3           14.838 (   1.032) /_  116.7

ELEMENT = "Line.L18"
834        ( 54)    1            14.99 (   1.043) /_   -2.5
834        ( 55)    2           14.951 (    1.04) /_ -123.7
834        ( 56)    3           14.843 (   1.032) /_  116.7
------------
842        ( 60)    1           14.989 (   1.043) /_   -2.5
842        ( 61)    2            14.95 (    1.04) /_ -123.7
842        ( 62)    3           14.842 (   1.032) /_  116.7

ELEMENT = "Line.L19"
836        ( 63)    1           14.981 (   1.042) /_   -2.5
836        ( 64)    2            14.94 (   1.039) /_ -123.7
836        ( 65)    3           14.836 (   1.032) /_  116.7
------------
840        ( 66)    1           14.981 (   1.042) /_   -2.5
840        ( 67)    2           14.939 (   1.039) /_ -123.7
840        ( 68)    3           14.836 (   1.032) /_  116.7

ELEMENT = "Line.L20"
836        ( 63)    1           14.981 (   1.042) /_   -2.5
836        ( 64)    2            14.94 (   1.039) /_ -123.7
836        ( 65)    3           14.836 (   1.032) /_  116.7
------------
862        ( 69)    1           14.981 (   1.042) /_   -2.5
862        ( 70)    2            14.94 (   1.039) /_ -123.7
862        ( 71)    3           14.836 (   1.032) /_  116.7

ELEMENT = "Line.L21"
842        ( 60)    1           14.989 (   1.043) /_   -2.5
842        ( 61)    2            14.95 (    1.04) /_ -123.7
842        ( 62)    3           14.842 (   1.032) /_  116.7
------------
844        ( 72)    1           14.986 (   1.042) /_   -2.6
844        ( 73)    2           14.945 (    1.04) /_ -123.7
844        ( 74)    3           14.839 (   1.032) /_  116.7

ELEMENT = "Line.L22"
844        ( 72)    1           14.986 (   1.042) /_   -2.6
844        ( 73)    2           14.945 (    1.04) /_ -123.7
844        ( 74)    3           14.839 (   1.032) /_  116.7
------------
846        ( 75)    1           14.989 (   1.043) /_   -2.6
846        ( 76)    2           14.944 (    1.04) /_ -123.7
846        ( 77)    3           14.842 (   1.032) /_  116.6

ELEMENT = "Line.L23"
846        ( 75)    1           14.989 (   1.043) /_   -2.6
846        ( 76)    2           14.944 (    1.04) /_ -123.7
846        ( 77)    3           14.842 (   1.032) /_  116.6
------------
848        ( 78)    1           14.989 (   1.043) /_   -2.6
848        ( 79)    2           14.944 (    1.04) /_ -123.8
848        ( 80)    3           14.842 (   1.032) /_  116.6

ELEMENT = "Line.L24"
850        ( 26)    1           14.768 (   1.027) /_   -1.8
850        ( 27)    2           14.724 (   1.024) /_ -122.3
850        ( 28)    3           14.682 (   1.021) /_  118.3
------------
816        ( 29)    1           14.763 (   1.027) /_   -1.8
816        ( 31)    2            14.72 (   1.024) /_ -122.3
816        ( 32)    3           14.679 (   1.021) /_  118.3

ELEMENT = "Line.L25"
852R       ( 81)    1           15.061 (   1.048) /_   -2.4
852R       ( 82)    2           15.024 (   1.045) /_ -123.5
852R       ( 83)    3           14.913 (   1.037) /_  116.9
------------
832        ( 48)    1           15.061 (   1.048) /_   -2.4
832        ( 49)    2           15.024 (   1.045) /_ -123.5
832        ( 50)    3           14.913 (   1.037) /_  116.9

ELEMENT = "Transformer.XFM1"
832        ( 48)    1           15.061 (   1.048) /_   -2.4
832        ( 49)    2           15.024 (   1.045) /_ -123.5
832        ( 50)    3           14.913 (   1.037) /_  116.9
832        (  0)    0                0 (       0) /_    0.0
------------
888        ( 84)    1           2.4293 (   1.011) /_   -3.9
888        ( 85)    2           2.4235 (   1.009) /_ -125.0
888        ( 86)    3           2.4055 (   1.002) /_  115.4
888        (  0)    0                0 (       0) /_    0.0

ELEMENT = "Line.L26"
854        ( 46)    2           14.325 (  0.9965) /_ -122.8
------------
856        ( 87)    2           14.324 (  0.9963) /_ -122.8

ELEMENT = "Line.L27"
854        ( 45)    1           14.366 (  0.9993) /_   -2.0
854        ( 46)    2           14.325 (  0.9965) /_ -122.8
854        ( 47)    3           14.298 (  0.9946) /_  117.7
------------
852        ( 88)    1           13.931 (  0.9691) /_   -2.4
852        ( 89)    2           13.897 (  0.9667) /_ -123.5
852        ( 90)    3           13.874 (  0.9651) /_  116.9

ELEMENT = "Line.L28"
858        ( 51)    1           15.028 (   1.045) /_   -2.5
------------
864        ( 91)    1           15.028 (   1.045) /_   -2.5

ELEMENT = "Line.L29"
858        ( 51)    1           15.028 (   1.045) /_   -2.5
858        ( 52)    2            14.99 (   1.043) /_ -123.6
858        ( 53)    3            14.88 (   1.035) /_  116.8
------------
834        ( 54)    1            14.99 (   1.043) /_   -2.5
834        ( 55)    2           14.951 (    1.04) /_ -123.7
834        ( 56)    3           14.843 (   1.032) /_  116.7

ELEMENT = "Line.L30"
860        ( 57)    1           14.984 (   1.042) /_   -2.5
860        ( 58)    2           14.945 (    1.04) /_ -123.7
860        ( 59)    3           14.838 (   1.032) /_  116.7
------------
836        ( 63)    1           14.981 (   1.042) /_   -2.5
836        ( 64)    2            14.94 (   1.039) /_ -123.7
836        ( 65)    3           14.836 (   1.032) /_  116.7

ELEMENT = "Line.L31"
862        ( 70)    2            14.94 (   1.039) /_ -123.7
------------
838        ( 92)    2           14.937 (   1.039) /_ -123.7

ELEMENT = "Line.L32"
888        ( 84)    1           2.4293 (   1.011) /_   -3.9
888        ( 85)    2           2.4235 (   1.009) /_ -125.0
888        ( 86)    3           2.4055 (   1.002) /_  115.4
------------
890        ( 93)    1             2.24 (  0.9326) /_   -4.1
890        ( 94)    2           2.2504 (   0.937) /_ -125.6
890        ( 95)    3           2.2181 (  0.9235) /_  115.0

ELEMENT = "Capacitor.C844"
844        ( 72)    1           14.986 (   1.042) /_   -2.6
844        ( 73)    2           14.945 (    1.04) /_ -123.7
844        ( 74)    3           14.839 (   1.032) /_  116.7
------------
844        (  0)    0                0 (       0) /_    0.0
844        (  0)    0                0 (       0) /_    0.0
844        (  0)    0                0 (       0) /_    0.0

ELEMENT = "Capacitor.C848"
848        ( 78)    1           14.989 (   1.043) /_   -2.6
848        ( 79)    2           14.944 (    1.04) /_ -123.8
848        ( 80)    3           14.842 (   1.032) /_  116.6
------------
848        (  0)    0                0 (       0) /_    0.0
848        (  0)    0                0 (       0) /_    0.0
848        (  0)    0                0 (       0) /_    0.0

ELEMENT = "Transformer.REG1A"
814        ( 20)    1           13.662 (  0.9503) /_   -1.7
814        (  0)    0                0 (       0) /_    0.0
------------
814R       ( 23)    1           14.768 (   1.027) /_   -1.8
814R       (  0)    0                0 (       0) /_    0.0

ELEMENT = "Transformer.REG1B"
814        ( 21)    2            14.28 (  0.9933) /_ -122.2
814        (  0)    0                0 (       0) /_    0.0
------------
814R       ( 24)    2           14.724 (   1.024) /_ -122.3
814R       (  0)    0                0 (       0) /_    0.0

ELEMENT = "Transformer.REG1C"
814        ( 22)    3           14.239 (  0.9905) /_  118.4
814        (  0)    0                0 (       0) /_    0.0
------------
814R       ( 25)    3           14.682 (   1.021) /_  118.3
814R       (  0)    0                0 (       0) /_    0.0

ELEMENT = "Transformer.REG2A"
852        ( 88)    1           13.931 (  0.9691) /_   -2.4
852        (  0)    0                0 (       0) /_    0.0
------------
852R       ( 81)    1           15.061 (   1.048) /_   -2.4
852R       (  0)    0                0 (       0) /_    0.0

ELEMENT = "Transformer.REG2B"
852        ( 89)    2           13.897 (  0.9667) /_ -123.5
852        (  0)    0                0 (       0) /_    0.0
------------
852R       ( 82)    2           15.024 (   1.045) /_ -123.5
852R       (  0)    0                0 (       0) /_    0.0

ELEMENT = "Transformer.REG2C"
852        ( 90)    3           13.874 (  0.9651) /_  116.9
852        (  0)    0                0 (       0) /_    0.0
------------
852R       ( 83)    3           14.913 (   1.037) /_  116.9
852R       (  0)    0                0 (       0) /_    0.0

= = = = = = = = = = = = = = = = = = =  = = = = = = = = = = =  = =

Power Conversion Elements

Bus       (node ref)  Phase    Magnitude, kV (pu)    Angle

ELEMENT = "Load.S860"
860        ( 57)    1           14.984 (   1.042) /_   -2.5
860        ( 58)    2           14.945 (    1.04) /_ -123.7
860        ( 59)    3           14.838 (   1.032) /_  116.7
860        (  0)    0                0 (       0) /_    0.0

ELEMENT = "Load.S840"
840        ( 66)    1           14.981 (   1.042) /_   -2.5
840        ( 67)    2           14.939 (   1.039) /_ -123.7
840        ( 68)    3           14.836 (   1.032) /_  116.7
840        (  0)    0                0 (       0) /_    0.0

ELEMENT = "Load.S844"
844        ( 72)    1           14.986 (   1.042) /_   -2.6
844        ( 73)    2           14.945 (    1.04) /_ -123.7
844        ( 74)    3           14.839 (   1.032) /_  116.7
844        (  0)    0                0 (       0) /_    0.0

ELEMENT = "Load.S848"
848        ( 78)    1           14.989 (   1.043) /_   -2.6
848        ( 79)    2           14.944 (    1.04) /_ -123.8
848        ( 80)    3           14.842 (   1.032) /_  116.6

ELEMENT = "Load.S830A"
830        ( 42)    1           14.372 (  0.9997) /_   -2.0
830        ( 43)    2           14.331 (  0.9969) /_ -122.8

ELEMENT = "Load.S830B"
830        ( 43)    2           14.331 (  0.9969) /_ -122.8
830        ( 44)    3           14.304 (   0.995) /_  117.7

ELEMENT = "Load.S830C"
830        ( 44)    3           14.304 (   0.995) /_  117.7
830        ( 42)    1           14.372 (  0.9997) /_   -2.0

ELEMENT = "Load.S890"
890        ( 93)    1             2.24 (  0.9326) /_   -4.1
890        ( 94)    2           2.2504 (   0.937) /_ -125.6
890        ( 95)    3           2.2181 (  0.9235) /_  115.0

ELEMENT = "Load.D802_806SB"
802        (  8)    2           15.072 (   1.048) /_ -120.1
802        (  0)    0                0 (       0) /_    0.0

ELEMENT = "Load.D802_806RB"
806        ( 11)    2           15.057 (   1.047) /_ -120.1
806        (  0)    0                0 (       0) /_    0.0

ELEMENT = "Load.D802_806SC"
802        (  9)    3           15.073 (   1.048) /_  120.0
802        (  0)    0                0 (       0) /_    0.0

ELEMENT = "Load.D802_806RC"
806        ( 12)    3           15.058 (   1.047) /_  119.9
806        (  0)    0                0 (       0) /_    0.0

ELEMENT = "Load.D808_810SB"
808        ( 14)    2           14.796 (   1.029) /_ -120.8
808        (  0)    0                0 (       0) /_    0.0

ELEMENT = "Load.D808_810RB"
810        ( 16)    2           14.794 (   1.029) /_ -120.8
810        (  0)    0                0 (       0) /_    0.0

ELEMENT = "Load.D818_820SA"
818        ( 30)    1            14.75 (   1.026) /_   -1.8
818        (  0)    0                0 (       0) /_    0.0

ELEMENT = "Load.D818_820RA"
820        ( 36)    1           14.424 (   1.003) /_   -1.7
820        (  0)    0                0 (       0) /_    0.0

ELEMENT = "Load.D820_822SA"
820        ( 36)    1           14.424 (   1.003) /_   -1.7
820        (  0)    0                0 (       0) /_    0.0

ELEMENT = "Load.D820_822RA"
822        ( 37)    1           14.382 (       1) /_   -1.7
822        (  0)    0                0 (       0) /_    0.0

ELEMENT = "Load.D816_824SB"
816        ( 31)    2            14.72 (   1.024) /_ -122.3
816        (  0)    0                0 (       0) /_    0.0

ELEMENT = "Load.D816_824RB"
824        ( 34)    2           14.585 (   1.015) /_ -122.4
824        (  0)    0                0 (       0) /_    0.0

ELEMENT = "Load.D824_826SB"
824        ( 34)    2           14.585 (   1.015) /_ -122.4
824        (  0)    0                0 (       0) /_    0.0

ELEMENT = "Load.D824_826RB"
826        ( 38)    2           14.582 (   1.014) /_ -122.4
826        (  0)    0                0 (       0) /_    0.0

ELEMENT = "Load.D824_828SC"
824        ( 35)    3           14.558 (   1.013) /_  118.1
824        (  0)    0                0 (       0) /_    0.0

ELEMENT = "Load.D824_828RC"
828        ( 41)    3           14.548 (   1.012) /_  118.1
828        (  0)    0                0 (       0) /_    0.0

ELEMENT = "Load.D828_830SA"
828        ( 39)    1           14.625 (   1.017) /_   -1.8
828        (  0)    0                0 (       0) /_    0.0

ELEMENT = "Load.D828_830RA"
830        ( 42)    1           14.372 (  0.9997) /_   -2.0
830        (  0)    0                0 (       0) /_    0.0

ELEMENT = "Load.D854_856SB"
854        ( 46)    2           14.325 (  0.9965) /_ -122.8
854        (  0)    0                0 (       0) /_    0.0

ELEMENT = "Load.D854_856RB"
856        ( 87)    2           14.324 (  0.9963) /_ -122.8
856        (  0)    0                0 (       0) /_    0.0

ELEMENT = "Load.D832_858SA"
832        ( 48)    1           15.061 (   1.048) /_   -2.4
832        (  0)    0                0 (       0) /_    0.0

ELEMENT = "Load.D832_858RA"
858        ( 51)    1           15.028 (   1.045) /_   -2.5
858        (  0)    0                0 (       0) /_    0.0

ELEMENT = "Load.D832_858SB"
832        ( 49)    2           15.024 (   1.045) /_ -123.5
832        (  0)    0                0 (       0) /_    0.0

ELEMENT = "Load.D832_858RB"
858        ( 52)    2            14.99 (   1.043) /_ -123.6
858        (  0)    0                0 (       0) /_    0.0

ELEMENT = "Load.D832_858SC"
832        ( 50)    3           14.913 (   1.037) /_  116.9
832        (  0)    0                0 (       0) /_    0.0

ELEMENT = "Load.D832_858RC"
858        ( 53)    3            14.88 (   1.035) /_  116.8
858        (  0)    0                0 (       0) /_    0.0

ELEMENT = "Load.D858_864SB"
858        ( 51)    1           15.028 (   1.045) /_   -2.5
858        (  0)    0                0 (       0) /_    0.0

ELEMENT = "Load.D858_864RB"
864        ( 91)    1           15.028 (   1.045) /_   -2.5
864        (  0)    0                0 (       0) /_    0.0

ELEMENT = "Load.D858_834SA"
858        ( 51)    1           15.028 (   1.045) /_   -2.5
858        ( 52)    2            14.99 (   1.043) /_ -123.6

ELEMENT = "Load.D858_834RA"
834        ( 54)    1            14.99 (   1.043) /_   -2.5
834        ( 55)    2           14.951 (    1.04) /_ -123.7

ELEMENT = "Load.D858_834SB"
858        ( 52)    2            14.99 (   1.043) /_ -123.6
858        ( 53)    3            14.88 (   1.035) /_  116.8

ELEMENT = "Load.D858_834RB"
834        ( 55)    2           14.951 (    1.04) /_ -123.7
834        ( 56)    3           14.843 (   1.032) /_  116.7

ELEMENT = "Load.D858_834SC"
858        ( 53)    3            14.88 (   1.035) /_  116.8
858        ( 51)    1           15.028 (   1.045) /_   -2.5

ELEMENT = "Load.D858_834RC"
834        ( 56)    3           14.843 (   1.032) /_  116.7
834        ( 54)    1            14.99 (   1.043) /_   -2.5

ELEMENT = "Load.D834_860SA"
834        ( 54)    1            14.99 (   1.043) /_   -2.5
834        ( 55)    2           14.951 (    1.04) /_ -123.7

ELEMENT = "Load.D834_860RA"
860        ( 57)    1           14.984 (   1.042) /_   -2.5
860        ( 58)    2           14.945 (    1.04) /_ -123.7

ELEMENT = "Load.D834_860SB"
834        ( 55)    2           14.951 (    1.04) /_ -123.7
834        ( 56)    3           14.843 (   1.032) /_  116.7

ELEMENT = "Load.D834_860RB"
860        ( 58)    2           14.945 (    1.04) /_ -123.7
860        ( 59)    3           14.838 (   1.032) /_  116.7

ELEMENT = "Load.D834_860SC"
834        ( 56)    3           14.843 (   1.032) /_  116.7
834        ( 54)    1            14.99 (   1.043) /_   -2.5

ELEMENT = "Load.D834_860RC"
860        ( 59)    3           14.838 (   1.032) /_  116.7
860        ( 57)    1           14.984 (   1.042) /_   -2.5

ELEMENT = "Load.D860_836SA"
860        ( 57)    1           14.984 (   1.042) /_   -2.5
860        ( 58)    2           14.945 (    1.04) /_ -123.7

ELEMENT = "Load.D860_836RA"
836        ( 63)    1           14.981 (   1.042) /_   -2.5
836        ( 64)    2            14.94 (   1.039) /_ -123.7

ELEMENT = "Load.D860_836SB"
860        ( 58)    2           14.945 (    1.04) /_ -123.7
860        ( 59)    3           14.838 (   1.032) /_  116.7

ELEMENT = "Load.D860_836RB"
836        ( 64)    2            14.94 (   1.039) /_ -123.7
836        ( 65)    3           14.836 (   1.032) /_  116.7

ELEMENT = "Load.D860_836SC"
860        ( 59)    3           14.838 (   1.032) /_  116.7
860        ( 57)    1           14.984 (   1.042) /_   -2.5

ELEMENT = "Load.D860_836RC"
836        ( 65)    3           14.836 (   1.032) /_  116.7
836        ( 63)    1           14.981 (   1.042) /_   -2.5

ELEMENT = "Load.D836_840SA"
836        ( 63)    1           14.981 (   1.042) /_   -2.5
836        ( 64)    2            14.94 (   1.039) /_ -123.7

ELEMENT = "Load.D836_840RA"
840        ( 66)    1           14.981 (   1.042) /_   -2.5
840        ( 67)    2           14.939 (   1.039) /_ -123.7

ELEMENT = "Load.D836_840SB"
836        ( 64)    2            14.94 (   1.039) /_ -123.7
836        ( 65)    3           14.836 (   1.032) /_  116.7

ELEMENT = "Load.D836_840RB"
840        ( 67)    2           14.939 (   1.039) /_ -123.7
840        ( 68)    3           14.836 (   1.032) /_  116.7

ELEMENT = "Load.D862_838SB"
862        ( 70)    2            14.94 (   1.039) /_ -123.7
862        (  0)    0                0 (       0) /_    0.0

ELEMENT = "Load.D862_838RB"
838        ( 92)    2           14.937 (   1.039) /_ -123.7
838        (  0)    0                0 (       0) /_    0.0

ELEMENT = "Load.D842_844SA"
842        ( 60)    1           14.989 (   1.043) /_   -2.5
842        (  0)    0                0 (       0) /_    0.0

ELEMENT = "Load.D842_844RA"
844        ( 72)    1           14.986 (   1.042) /_   -2.6
844        (  0)    0                0 (       0) /_    0.0

ELEMENT = "Load.D844_846SB"
844        ( 73)    2           14.945 (    1.04) /_ -123.7
844        (  0)    0                0 (       0) /_    0.0

ELEMENT = "Load.D844_846RB"
846        ( 76)    2           14.944 (    1.04) /_ -123.7
846        (  0)    0                0 (       0) /_    0.0

ELEMENT = "Load.D844_846SC"
844        ( 74)    3           14.839 (   1.032) /_  116.7
844        (  0)    0                0 (       0) /_    0.0

ELEMENT = "Load.D844_846RC"
846        ( 77)    3           14.842 (   1.032) /_  116.6
846        (  0)    0                0 (       0) /_    0.0

ELEMENT = "Load.D846_848SB"
846        ( 76)    2           14.944 (    1.04) /_ -123.7
846        (  0)    0                0 (       0) /_    0.0

ELEMENT = "Load.D846_848RB"
848        ( 79)    2           14.944 (    1.04) /_ -123.8
848        (  0)    0                0 (       0) /_    0.0

